Version 4
SHEET 1 1764 3592
WIRE 1568 -336 1456 -336
WIRE 1696 -336 1568 -336
WIRE 1456 -288 1456 -336
WIRE 1568 -288 1568 -336
WIRE 1696 -288 1696 -336
WIRE 192 -224 192 -304
WIRE 544 -224 192 -224
WIRE 960 -224 960 -304
WIRE 960 -224 624 -224
WIRE 1456 -160 1456 -208
WIRE 1568 -160 1568 -224
WIRE 1568 -160 1456 -160
WIRE 1616 -160 1568 -160
WIRE 1696 -160 1696 -208
WIRE 1696 -160 1616 -160
WIRE 192 -144 192 -224
WIRE 960 -144 960 -224
WIRE 1616 -112 1616 -160
FLAG -352 -720 0
FLAG -352 -224 0
FLAG -352 -496 0
FLAG 320 -384 TAMB
FLAG 320 48 TAMB
FLAG 1088 -384 TAMB
FLAG 1088 48 TAMB
FLAG 192 128 0
FLAG 960 128 0
FLAG 192 -576 VDC
FLAG 960 -576 VDC
FLAG 1616 -112 0
FLAG -352 -576 VDC
FLAG 48 -400 AH
FLAG 48 32 AL
FLAG 816 -400 BH
FLAG 816 32 BL
FLAG -352 -304 TAMB
FLAG -352 -928 0
FLAG -80 -928 0
FLAG -80 -1008 SIN_REF_INV
FLAG -352 -1008 SIN_REF
FLAG -352 -800 TRI
SYMBOL power_nmos_heat 80 -432 R0
SYMATTR Value C2M0025120D
SYMATTR InstName U1
SYMBOL voltage -352 -320 R0
WINDOW 123 0 0 Left 2
WINDOW 39 0 0 Left 2
SYMATTR InstName V1
SYMATTR Value 25
SYMBOL voltage -352 -816 R0
WINDOW 123 0 0 Left 2
WINDOW 39 0 0 Left 2
SYMATTR InstName V2
SYMATTR Value PULSE(-10 10 0 4.9u 4.9u 0.2u 10u)
SYMBOL voltage -352 -592 R0
WINDOW 123 0 0 Left 2
WINDOW 39 0 0 Left 2
SYMATTR InstName V3
SYMATTR Value 450
SYMBOL power_nmos_heat 80 0 R0
SYMATTR Value C2M0025120D
SYMATTR InstName U2
SYMBOL power_nmos_heat 848 -432 R0
SYMATTR Value C2M0025120D
SYMATTR InstName U3
SYMBOL power_nmos_heat 848 0 R0
SYMATTR Value C2M0025120D
SYMATTR InstName U4
SYMBOL ind2 528 -208 R270
WINDOW 0 32 56 VTop 2
WINDOW 3 5 56 VBottom 2
SYMATTR InstName L1
SYMATTR Value 100µ
SYMATTR Type ind
SYMBOL ind2 1472 -192 R180
WINDOW 0 36 80 Left 2
WINDOW 3 36 40 Left 2
SYMATTR InstName L2
SYMATTR Value 100µ
SYMATTR Type ind
SYMBOL cap 1552 -288 R0
SYMATTR InstName C1
SYMATTR Value 330µ
SYMBOL res 1680 -304 R0
SYMATTR InstName R1
SYMATTR Value 100
SYMBOL voltage -80 -1024 R0
WINDOW 123 0 0 Left 2
WINDOW 39 0 0 Left 2
SYMATTR InstName V4
SYMATTR Value SINE(0 10 60 0 0 180)
SYMBOL voltage -352 -1024 R0
WINDOW 123 0 0 Left 2
WINDOW 39 0 0 Left 2
SYMATTR InstName V5
SYMATTR Value SINE(0 10 60)
TEXT -1560 -312 Left 2 !*********************************************************************************\n*                                                                                                                                                               *\n*                   ,o888888o.    888888888888.   88888888888888 88888888888888                 *\n*                  8888     `88.  888888    `88.  888888         888888                         *\n*               ,888888       `8. 888888     `88  888888         888888                         *\n*               8888888           888888     ,88  888888         888888                         *\n*               8888888           888888.   ,88'  88888888888888 88888888888888                 *\n*               8888888           888888888888'   888888         888888                         *\n*               8888888           888888`8b       888888         888888                         *\n*               `888888       .8' 888888 `8b.     888888         888888                         *\n*                  8888     ,88'  888888   `8b.   888888         888888                         *\n*                   `8888888P'    888888     `88. 88888888888888 88888888888888                 *\n*                                                                                                                                                               *\n*********************************************************************************\n \n***********************************************************\n****            Cree SiC MOSFET C2M0025120D Spice Library Beta Version\n***********************************************************\n****NO Parasitics Included\n****Tj = Junction Temperature\n****Tc = Case Temperature\n***********************************************************\n \n.subckt C2M0025120D d g s Tj Tc\n.param af1=1\nxgmos           d1 g1 s1 Tj Tc gmos params: af=af1\n \nLs                              s               s1              9n\nR_Ls                            s               s1      10\nRg                              g1              g2              {1.1/af1}\nLg                              g               g3              15n\nR_Lg                            g               g3              10\nLd                              d               d3      6n\nR_Ld                            d               d3              10\nB1                              d2              d1      I=(V(d2,d1))/((0.0000007714*((V(Tj))**2)+0.0000978571*(V(Tj))+0.0231428571)+1n)\nR_A                             d2              d1              1E12\nVgate_s                         g3              g2              0\nVdrain_s        d3              d2              0\nGheat                           0               Tj              value = {abs((V(d,s)*I(Vdrain_s)))+abs((V(g,s)*I(Vgate_s)))}\nXCGD                            d1              g1              cgdmos params: af=af1\nCGS                             g1              s1              {2825.325p*af1}\nCDS                             d2              s1              {70p*af1}\nD1                              s1              d2              bodydiode\nD2                              s1              d2              bodydiode\nD3                              s1              d2              bodydiode\nR0 N1 Tj 4.4m\nR1 N2 N1 4.4m\nR2 N3 N2 19.1m\nR3 N4 N3 19.7m\nR4 N5 N4 28.8m\nR5 N6 N5 25.2m\nR6 N7 N6 17.5m\nR7 N8 N7 18.2m\nR8 N9 N8 25.9m\nR9 N10 N9 34.5m\nR10 N11 N10 26.9m\nR11 N12 N11 10m\nR12 N13 N12 2.88m\nR13 Tc N13 0.183m\nC0 Tj Tc 1.32m\nC1 N1 Tc 1.1m\nC2 N2 Tc 5.02m\nC3 N3 Tc 8.95m\nC4 N4 Tc 8.04m\nC5 N5 Tc 10m\nC6 N6 Tc 21.9m\nC7 N7 Tc 47.3m\nC8 N8 Tc 65.1m\nC9 N9 Tc 68.9m\nC10 N10 Tc 88.9m\nC11 N11 Tc 0.291\nC12 N12 Tc 5.78\nC13 N13 Tc 1.29k\n \n.ends C2M0025120D \n*****************************************\n \n.subckt gmos d1 g2 s1 Tj Tc\n \n.param Adj = 0.56\nB2                              NET1            0               V=(-0.0237528571*(V(Tj))+26.30875)\nR_B                             NET1            0               1E12\nB3                              NET2            0               V=((0.0000290194*((V(Tj))**2)-0.0144927440*(V(Tj))+6.6778449647)*Adj)\nR_C                             NET2            0               1E12\n.param p3  = 13\n.param p4  = 0.0257                                                                                                                                                                             \n.param p5  = 2.2\n.param p6  = 2.0\n.param p7  = 0.5\n.param p8  = 0.001\n.param p9  = {2*p3*p4}\n.param p10 = {p9*p4}\n.param p11 = -10\n.param p12 = 25\n \nR100 g1 s1      1e9\nE100 g1 s1      value = {limit(V(g2,s1),p11,p12)} \nG1 d1 s1 value =                {\n+               if(V(d1,s1)<0,\n+                               -p10*V(NET1,0)*((ln(1+exp((v(g1,s1)-V(NET2,0))/p9)))**p5)\n+                               *(1+p8*v(s1,d1))\n+                               ,\n+                               p10*V(NET1,0)*((ln(1+exp((v(g1,s1)-V(NET2,0))/p9)))**p5)\n+                               *(1+p8*v(d1,s1))\n+                               )\n+                                               }\nG2 d1 s1 value =                {\n+               if(V(d1,s1)<0,\n+                               p10*V(NET1,0)*((ln(1+exp((v(g1,s1)-V(NET2,0)-p6*(v(s1,d1))**p7)/p9)))**p5)\n+                               *(1+p8*v(s1,d1))\n+                               ,\n+                               -p10*V(NET1,0)*((ln(1+exp((v(g1,s1)-V(NET2,0)-p6*(v(d1,s1))**p7)/p9)))**p5)\n+                               *(1+p8*v(d1,s1))\n+                               )\n+                                               }\n \n.ends gmos\n****************************************\n \n.model bodydiode d(is=1.2e-12 cjo=842.1649p bv=1600 m=0.58729 EG=3.26 vj=3.82 n=3.9 \n+               rs=0.02  trs1=-0.0047035655  trs2=0.0000227057 Tnom=25\n+               tt=15n ibv=500u Xti=12 level=1)\n****************************************\n \n.subckt cgdmos d2 g\n.param k1=1702.69p\n.param k2=0.545\n.param ka=18.096\n.param kb=0.2678\n.param kc=7.5277\nG11 g d1 value =                {\n+                               af*k1*(\n+                               (1+(limit(v(d1,g),0,500))*(1+ka*(1+TANH(kb*V(d1,g)-kc))/2))**-k2\n+                               )*ddt(v(g,d1))\n+                                               }\nR_CGD d1 d2 1e-3\nC_CGD g d1 {1p*af}\n.ends cgdmos\n***************************************
TEXT -1560 3576 Left 2 !.tran 10m
TEXT 1392 -472 Left 2 !K1 L1 L2 1
